
**** 09/08/17 11:21:22 ******* PSpice Lite (March 2016) ******* ID# 10813 ****

 ** Profile: "GATES_Billings-ANDinput"  [ c:\users\student\desktop\csci labs\lab1_billings\lab1_billings-pspicefiles\gates_billings\a


 ****     CIRCUIT DESCRIPTION


******************************************************************************




** Creating circuit file "ANDinput.cir" 
** WARNING: THIS AUTOMATICALLY GENERATED FILE MAY BE OVERWRITTEN BY SUBSEQUENT SIMULATIONS

*Libraries: 
* Profile Libraries :
* Local Libraries :
.STMLIB "../../../input.stl" 
* From [PSPICE NETLIST] section of C:\Users\student\AppData\Roaming\SPB_Data\cdssetup\OrCAD_PSpice\17.2.0\PSpice.ini file:
.lib "nomd.lib" 

*Analysis directives: 
.TRAN  0 10ms 0 
.OPTIONS ADVCONV
.PROBE64 V(alias(*)) I(alias(*)) W(alias(*)) D(alias(*)) NOISE(alias(*)) 
.INC "..\GATES_Billings.net" 



**** INCLUDING GATES_Billings.net ****
* source LAB1_BILLINGS
.EXTERNAL OUTPUT ANDoutput
.EXTERNAL OUTPUT ORoutput
.EXTERNAL OUTPUT NORoutput
.EXTERNAL OUTPUT NANDoutput
.EXTERNAL OUTPUT InvertedAndOutput
.EXTERNAL OUTPUT NandOutputTwo
.EXTERNAL OUTPUT NorOutputTwo
X_U1A         M_UN0001 M_UN0002 ANDOUTPUT $G_DPWR $G_DGND 7408 PARAMS:
+ IO_LEVEL=0 MNTYMXDLY=0
X_U2A         M_UN0003 M_UN0004 OROUTPUT $G_DPWR $G_DGND 7432 PARAMS:
+ IO_LEVEL=0 MNTYMXDLY=0
X_U3A         M_UN0005 M_UN0006 NOROUTPUT $G_DPWR $G_DGND 7402 PARAMS:
+ IO_LEVEL=0 MNTYMXDLY=0
X_U4A         N01515 M_UN0007 NANDOUTPUT $G_DPWR $G_DGND 7400 PARAMS:
+ IO_LEVEL=0 MNTYMXDLY=0
X_U5A         N02054 INVERTEDANDOUTPUT $G_DPWR $G_DGND 7404 PARAMS:
+ IO_LEVEL=0 MNTYMXDLY=0
X_U6A         N01964 N01976 N02054 $G_DPWR $G_DGND 7432 PARAMS:
+ IO_LEVEL=0 MNTYMXDLY=0
X_U9A         N02702 N02706 NANDOUTPUTTWO $G_DPWR $G_DGND 7400 PARAMS:
+ IO_LEVEL=0 MNTYMXDLY=0
U_y1         STIM(1,0) $G_DPWR $G_DGND N03848 IO_STM STIMULUS=y
U_x1         STIM(1,0) $G_DPWR $G_DGND N03846 IO_STM STIMULUS=x
X_U10A         N03846 N03848 NOROUTPUTTWO $G_DPWR $G_DGND 7428 PARAMS:
+ IO_LEVEL=0 MNTYMXDLY=0

**** RESUMING ANDinput.cir ****
.END

* C:\Users\student\Desktop\CSCI Labs\LAB1_Billings\input.stl written on Wed Sep 06 11:35:09 2017
* by Stimulus Editor -- Lite Version 17.2.0
;!Stimulus Get
;! x Digital y Digital
;!Ok
;!Plot Axis_Settings
;!Xrange 0s 8ms
;!AutoUniverse
;!XminRes 1ns
;!YminRes 1n
;!Ok
.STIMULUS Carry STIM (1, 1) ;! CLOCK 1 0.5 0 0
+   +0s 0
+   +500ms 1
+   Repeat Forever
+      +500ms 0
+      +500ms 1
+   EndRepeat
.STIMULUS y STIM (1, 1) ;! CLOCK 500 0.5 0 0
+   +0s 0
+   +1ms 1
+   Repeat Forever
+      +1ms 0
+      +1ms 1
+   EndRepeat
.STIMULUS x STIM (1, 1) ;! CLOCK 1k 0.5 0 0
+   +0s 0
+   +500us 1
+   Repeat Forever
+      +500us 0
+      +500us 1
+   EndRepeat

**** 09/08/17 11:21:22 ******* PSpice Lite (March 2016) ******* ID# 10813 ****

 ** Profile: "GATES_Billings-ANDinput"  [ c:\users\student\desktop\csci labs\lab1_billings\lab1_billings-pspicefiles\gates_billings\a


 ****     Digital Gate MODEL PARAMETERS


******************************************************************************




               D_08            D_32            D_02            D_00            
      TPLHMN    7.000000E-09    4.000000E-09    4.800000E-09    4.400000E-09 
      TPLHTY   17.500000E-09   10.000000E-09   12.000000E-09   11.000000E-09 
      TPLHMX   27.000000E-09   15.000000E-09   22.000000E-09   22.000000E-09 
      TPHLMN    4.800000E-09    5.600000E-09    3.200000E-09    2.800000E-09 
      TPHLTY   12.000000E-09   14.000000E-09    8.000000E-09    7.000000E-09 
      TPHLMX   19.000000E-09   22.000000E-09   15.000000E-09   15.000000E-09 


               D_04            D_28            
      TPLHMN    4.800000E-09    2.400000E-09 
      TPLHTY   12.000000E-09    6.000000E-09 
      TPLHMX   22.000000E-09    9.000000E-09 
      TPHLMN    3.200000E-09    3.200000E-09 
      TPHLTY    8.000000E-09    8.000000E-09 
      TPHLMX   15.000000E-09   12.000000E-09 


**** 09/08/17 11:21:22 ******* PSpice Lite (March 2016) ******* ID# 10813 ****

 ** Profile: "GATES_Billings-ANDinput"  [ c:\users\student\desktop\csci labs\lab1_billings\lab1_billings-pspicefiles\gates_billings\a


 ****     Digital IO  MODEL PARAMETERS


******************************************************************************




               IO_STM          IO_STD          
        DRVL    0             104            
        DRVH    0              96.4          
       AtoD1                 AtoD_STD        
       AtoD2                 AtoD_STD_NX     
       AtoD3                 AtoD_STD        
       AtoD4                 AtoD_STD_NX     
       DtoA1 DtoA_STM        DtoA_STD        
       DtoA2 DtoA_STM        DtoA_STD        
       DtoA3 DtoA_STM        DtoA_STD        
       DtoA4 DtoA_STM        DtoA_STD        
      TSWHL1                    1.511000E-09 
      TSWHL2                    1.487000E-09 
      TSWHL3                    1.511000E-09 
      TSWHL4                    1.487000E-09 
      TSWLH1                    3.517000E-09 
      TSWLH2                    3.564000E-09 
      TSWLH3                    3.517000E-09 
      TSWLH4                    3.564000E-09 
       TPWRT  100.000000E+03  100.000000E+03 



          JOB CONCLUDED

**** 09/08/17 11:21:22 ******* PSpice Lite (March 2016) ******* ID# 10813 ****

 ** Profile: "GATES_Billings-ANDinput"  [ c:\users\student\desktop\csci labs\lab1_billings\lab1_billings-pspicefiles\gates_billings\a


 ****     JOB STATISTICS SUMMARY


******************************************************************************



  Total job time                    =         .03
