
**** 10/16/17 11:39:12 ******* PSpice Lite (March 2016) ******* ID# 10813 ****

 ** Profile: "SCHEMATIC1-Lab03_Simulation"  [ C:\Users\student\Desktop\CSCI Labs\Lab03_Billings\lab03_billings-pspicefiles\schematic1


 ****     CIRCUIT DESCRIPTION


******************************************************************************




** Creating circuit file "Lab03_Simulation.cir" 
** WARNING: THIS AUTOMATICALLY GENERATED FILE MAY BE OVERWRITTEN BY SUBSEQUENT SIMULATIONS

*Libraries: 
* Profile Libraries :
* Local Libraries :
* From [PSPICE NETLIST] section of C:\Users\student\AppData\Roaming\SPB_Data\cdssetup\OrCAD_PSpice\17.2.0\PSpice.ini file:
.lib "nomd.lib" 
.stmlib "C:\Users\student\Desktop\CSCI Labs\Lab03_Billings_old\wxyz_base_500hz_billings.stl" 

*Analysis directives: 
---------------------------------------------------------------------------------------------$
ERROR(ORPSIM-16358): Unable to open stimulus file C:\Users\student\Desktop\CSCI Labs\Lab03_Billings_old\wxyz_base_500hz_billings.stl.
.TRAN  0 10ms 0 
.OPTIONS ADVCONV
.PROBE64 V(alias(*)) I(alias(*)) W(alias(*)) D(alias(*)) NOISE(alias(*)) 
.INC "..\SCHEMATIC1.net" 



**** INCLUDING SCHEMATIC1.net ****
* source LAB03_BILLINGS
.EXTERNAL OUTPUT PORTLEFT-L
U_z         STIM(1,0) $G_DPWR $G_DGND N09034 IO_STM STIMULUS=z
X_U5A         N09076 N09156 N09182 N09034 N17579 $G_DPWR $G_DGND 7420 PARAMS:
+ IO_LEVEL=0 MNTYMXDLY=0
X_U10A         N09076 N14485 N09182 N09356 N17593 $G_DPWR $G_DGND 7420 PARAMS:
+ IO_LEVEL=0 MNTYMXDLY=0
U_y         STIM(1,0) $G_DPWR $G_DGND N14287 IO_STM STIMULUS=y
U_w         STIM(1,0) $G_DPWR $G_DGND N08960 IO_STM STIMULUS=w
X_U3D         N08960 N08960 N09076 $G_DPWR $G_DGND 7400 PARAMS:
+ IO_LEVEL=0 MNTYMXDLY=0
U_x         STIM(1,0) $G_DPWR $G_DGND N14485 IO_STM STIMULUS=x
X_U8A         N09076 N09156 N14287 N09356 N17586 $G_DPWR $G_DGND 7420 PARAMS:
+ IO_LEVEL=0 MNTYMXDLY=0
X_U24A         N08960 N09156 N09182 N09356 N17600 $G_DPWR $G_DGND 7420 PARAMS:
+ IO_LEVEL=0 MNTYMXDLY=0
X_U24B         N09034 N14287 N14485 N09076 N17607 $G_DPWR $G_DGND 7420 PARAMS:
+ IO_LEVEL=0 MNTYMXDLY=0
X_U25D         N14485 N14485 N09156 $G_DPWR $G_DGND 7400 PARAMS:
+ IO_LEVEL=0 MNTYMXDLY=0
X_U26D         N14287 N14287 N09182 $G_DPWR $G_DGND 7400 PARAMS:
+ IO_LEVEL=0 MNTYMXDLY=0
X_U27D         N09034 N09034 N09356 $G_DPWR $G_DGND 7400 PARAMS:
+ IO_LEVEL=0 MNTYMXDLY=0
X_U28B         N09034 N14287 N09156 N08960 N17614 $G_DPWR $G_DGND 7420 PARAMS:
+ IO_LEVEL=0 MNTYMXDLY=0
X_U29B         N09034 N09182 N14485 N08960 N17621 $G_DPWR $G_DGND 7420 PARAMS:
+ IO_LEVEL=0 MNTYMXDLY=0
X_U30B         N09356 N14287 N14485 N08960 N17633 $G_DPWR $G_DGND 7420 PARAMS:
+ IO_LEVEL=0 MNTYMXDLY=0
X_U31A         N17579 N17586 N17593 N17600 N17923 $G_DPWR $G_DGND 7420 PARAMS:
+ IO_LEVEL=0 MNTYMXDLY=0
X_U31B         N17607 N17614 N17621 N17633 N17937 $G_DPWR $G_DGND 7420 PARAMS:
+ IO_LEVEL=0 MNTYMXDLY=0
X_U32D         N17923 N17923 N18004 $G_DPWR $G_DGND 7400 PARAMS:
+ IO_LEVEL=0 MNTYMXDLY=0
X_U33D         N17937 N17937 N18009 $G_DPWR $G_DGND 7400 PARAMS:
+ IO_LEVEL=0 MNTYMXDLY=0
X_U34D         N18009 N18004 PORTLEFT-L $G_DPWR $G_DGND 7400 PARAMS:
+ IO_LEVEL=0 MNTYMXDLY=0
X_U35A         N19218 N19225 N19330 $G_DPWR $G_DGND 7486 PARAMS:
+ IO_LEVEL=0 MNTYMXDLY=0
X_U35B         N19330 N19239 PORTLEFT-L $G_DPWR $G_DGND 7486 PARAMS:
+ IO_LEVEL=0 MNTYMXDLY=0
U_y1         STIM(1,0) $G_DPWR $G_DGND N19225 IO_STM STIMULUS=y
U_x1         STIM(1,0) $G_DPWR $G_DGND N19218 IO_STM STIMULUS=x
U_z1         STIM(1,0) $G_DPWR $G_DGND N19239 IO_STM STIMULUS=z

**** RESUMING Lab03_Simulation.cir ****
.END
