
**** 12/07/17 16:49:03 ******* PSpice Lite (March 2016) ******* ID# 10813 ****

 ** Profile: "4_1_Multiplexer_Test_Billings-Multiplexer_Test_Sim_Billings"  [ C:\Users\student\Desktop\CSCI Labs\Lab06a_Billings\Lab0


 ****     CIRCUIT DESCRIPTION


******************************************************************************




** Creating circuit file "Multiplexer_Test_Sim_Billings.cir" 
** WARNING: THIS AUTOMATICALLY GENERATED FILE MAY BE OVERWRITTEN BY SUBSEQUENT SIMULATIONS

*Libraries: 
* Profile Libraries :
* Local Libraries :
.STMLIB "../../../lab06a_billings_multiplexer_test_stim.stl" 
* From [PSPICE NETLIST] section of C:\Users\student\AppData\Roaming\SPB_Data\cdssetup\OrCAD_PSpice\17.2.0\PSpice.ini file:
.lib "nomd.lib" 

*Analysis directives: 
.TRAN  0 10ms 0 
.OPTIONS ADVCONV
.PROBE64 V(alias(*)) I(alias(*)) W(alias(*)) D(alias(*)) NOISE(alias(*)) 
.INC "..\4_1_Multiplexer_Test_Billings.net" 



**** INCLUDING 4_1_Multiplexer_Test_Billings.net ****
* source LAB06A_BILLINGS
.EXTERNAL OUTPUT PORTLEFT-L
U_I2         STIM(1,0) $G_DPWR $G_DGND N00355 IO_STM STIMULUS=I2
U_E         STIM(1,0) $G_DPWR $G_DGND N00327 IO_STM STIMULUS=E
U_I3         STIM(1,0) $G_DPWR $G_DGND N00367 IO_STM STIMULUS=I3
U_S1         STIM(1,0) $G_DPWR $G_DGND N00425 IO_STM STIMULUS=S1
U_I0         STIM(1,0) $G_DPWR $G_DGND N00339 IO_STM STIMULUS=I0
U_S0         STIM(1,0) $G_DPWR $G_DGND N00379 IO_STM STIMULUS=S0
U_I1         STIM(1,0) $G_DPWR $G_DGND N00351 IO_STM STIMULUS=I1
X_U1_U11B         U1_N02515 U1_N02204 N00327 N00339 U1_N06742 $G_DPWR $G_DGND
+  7420 PARAMS:
+ IO_LEVEL=0 MNTYMXDLY=0
X_U1_U10B         N00425 U1_N02204 N00327 N00355 U1_N07555 $G_DPWR $G_DGND 7420
+  PARAMS:
+ IO_LEVEL=0 MNTYMXDLY=0
X_U1_U3B         N00379 N00379 U1_N02204 $G_DPWR $G_DGND 7400 PARAMS:
+ IO_LEVEL=0 MNTYMXDLY=0
X_U1_U11A         U1_N02515 N00379 N00327 N00351 U1_N03169 $G_DPWR $G_DGND 7420
+  PARAMS:
+ IO_LEVEL=0 MNTYMXDLY=0
X_U1_U10A         N00425 N00379 N00327 N00367 U1_N06730 $G_DPWR $G_DGND 7420
+  PARAMS:
+ IO_LEVEL=0 MNTYMXDLY=0
X_U1_U8A         U1_N06730 U1_N07555 U1_N03169 U1_N06742 PORTLEFT-L $G_DPWR
+  $G_DGND 7420 PARAMS:
+ IO_LEVEL=0 MNTYMXDLY=0
X_U1_U4B         N00425 N00425 U1_N02515 $G_DPWR $G_DGND 7400 PARAMS:
+ IO_LEVEL=0 MNTYMXDLY=0

**** RESUMING Multiplexer_Test_Sim_Billings.cir ****
.END

;!YminRes 1n
;!Ok
.STIMULUS I3 STIM (1, 1) ;! CLOCK 6000 0.5 0 0
+   +0s 0
+   +83.33333333333us 1
+   Repeat Forever
+      +83.33333333333us 0
+      +83.33333333333us 1
+   EndRepeat
.STIMULUS I2 STIM (1, 1) ;! CLOCK 4000 0.5 0 0
+   +0s 0
+   +125us 1
+   Repeat Forever
+      +125us 0
+      +125us 1
+   EndRepeat
.STIMULUS I1 STIM (1, 1) ;! CLOCK 3000 0.5 0 0
+   +0s 0
+   +166.66666666667us 1
+   Repeat Forever
+      +166.66666666667us 0
+      +166.66666666667us 1
+   EndRepeat
.STIMULUS I0 STIM (1, 1) ;! CLOCK 2000 0.5 0 0
+   +0s 0
+   +250us 1
+   Repeat Forever
+      +250us 0
+      +250us 1
+   EndRepeat
.STIMULUS S1 STIM (1, 1) ;! CLOCK 250 0.5 0 0
+   +0s 0
+   +2ms 1
+   Repeat Forever
+      +2ms 0
+      +2ms 1
+   EndRepeat
.STIMULUS S0 STIM (1, 1) ;! CLOCK 500 0.5 0 0
+   +0s 0
+   +1ms 1
+   Repeat Forever
+      +1ms 0
+      +1ms 1
+   EndRepeat
.STIMULUS E STIM (1, 1) ;! CLOCK 125 0.5 0 0
+   +0s 0
+   +4ms 1
+   Repeat Forever
+      +4ms 0
+      +4ms 1
+   EndRepeat

**** 12/07/17 16:49:03 ******* PSpice Lite (March 2016) ******* ID# 10813 ****

 ** Profile: "4_1_Multiplexer_Test_Billings-Multiplexer_Test_Sim_Billings"  [ C:\Users\student\Desktop\CSCI Labs\Lab06a_Billings\Lab0


 ****     Digital Gate MODEL PARAMETERS


******************************************************************************




               D_20            D_00            
      TPLHMN    4.800000E-09    4.400000E-09 
      TPLHTY   12.000000E-09   11.000000E-09 
      TPLHMX   22.000000E-09   22.000000E-09 
      TPHLMN    3.200000E-09    2.800000E-09 
      TPHLTY    8.000000E-09    7.000000E-09 
      TPHLMX   15.000000E-09   15.000000E-09 


**** 12/07/17 16:49:03 ******* PSpice Lite (March 2016) ******* ID# 10813 ****

 ** Profile: "4_1_Multiplexer_Test_Billings-Multiplexer_Test_Sim_Billings"  [ C:\Users\student\Desktop\CSCI Labs\Lab06a_Billings\Lab0


 ****     Digital IO  MODEL PARAMETERS


******************************************************************************




               IO_STM          IO_STD          
        DRVL    0             104            
        DRVH    0              96.4          
       AtoD1                 AtoD_STD        
       AtoD2                 AtoD_STD_NX     
       AtoD3                 AtoD_STD        
       AtoD4                 AtoD_STD_NX     
       DtoA1 DtoA_STM        DtoA_STD        
       DtoA2 DtoA_STM        DtoA_STD        
       DtoA3 DtoA_STM        DtoA_STD        
       DtoA4 DtoA_STM        DtoA_STD        
      TSWHL1                    1.511000E-09 
      TSWHL2                    1.487000E-09 
      TSWHL3                    1.511000E-09 
      TSWHL4                    1.487000E-09 
      TSWLH1                    3.517000E-09 
      TSWLH2                    3.564000E-09 
      TSWLH3                    3.517000E-09 
      TSWLH4                    3.564000E-09 
       TPWRT  100.000000E+03  100.000000E+03 



          JOB CONCLUDED

**** 12/07/17 16:49:03 ******* PSpice Lite (March 2016) ******* ID# 10813 ****

 ** Profile: "4_1_Multiplexer_Test_Billings-Multiplexer_Test_Sim_Billings"  [ C:\Users\student\Desktop\CSCI Labs\Lab06a_Billings\Lab0


 ****     JOB STATISTICS SUMMARY


******************************************************************************



  Total job time                    =         .05
