
**** 11/13/17 11:58:27 ******* PSpice Lite (March 2016) ******* ID# 10813 ****

 ** Profile: "T_FROM_JK_test-T_FROM_JK_Test"  [ c:\users\student\desktop\csci labs\lab05_billings\lab05_billings-PSpiceFiles\T_FROM_J


 ****     CIRCUIT DESCRIPTION


******************************************************************************




** Creating circuit file "T_FROM_JK_Test.cir" 
** WARNING: THIS AUTOMATICALLY GENERATED FILE MAY BE OVERWRITTEN BY SUBSEQUENT SIMULATIONS

*Libraries: 
* Profile Libraries :
* Local Libraries :
.STMLIB "../../../clear.stl" 
* From [PSPICE NETLIST] section of C:\Users\student\AppData\Roaming\SPB_Data\cdssetup\OrCAD_PSpice\17.2.0\PSpice.ini file:
.lib "nomd.lib" 

*Analysis directives: 
.TRAN  0 10ms 0 
.OPTIONS ADVCONV
.PROBE64 V(alias(*)) I(alias(*)) W(alias(*)) D(alias(*)) NOISE(alias(*)) 
.INC "..\T_FROM_JK_test.net" 



**** INCLUDING T_FROM_JK_test.net ****
* source LAB05_BILLINGS
.EXTERNAL OUTPUT Q
.EXTERNAL OUTPUT QNOT
U_DSTM1         STIM(1,0) $G_DPWR $G_DGND N00732 IO_STM STIMULUS=Clock
U_DSTM2         STIM(1,0) $G_DPWR $G_DGND N00796 IO_STM STIMULUS=D
U_DSTM3         STIM(1,0) $G_DPWR $G_DGND N00822 IO_STM STIMULUS=Clear_n
X_U1_U1A         N00732 N00796 N00822 N00822 Q QNOT $G_DPWR $G_DGND 74107
+  PARAMS:
+ IO_LEVEL=0 MNTYMXDLY=0

**** RESUMING T_FROM_JK_Test.cir ****
.END

* C:\Users\student\Desktop\CSCI Labs\Lab05_Billings\clear.stl written on Mon Nov 13 11:08:05 2017
* by Stimulus Editor -- Lite Version 17.2.0
;!Stimulus Get
;! Clear_n Digital D Digital CLOCK Digital
;!Ok
;!Plot Axis_Settings
;!Xrange 0s 1.887149380503ms
;!AutoUniverse
;!XminRes 1ns
;!YminRes 1n
;!Ok
.STIMULUS Clear_n STIM (1, 1) ;! CLOCK 1 0.99999 0 0
+   +0s 0
+   +9.99999999995us 1
+   Repeat Forever
+      +0.99999s 0
+      +9.99999999995us 1
+   EndRepeat
.STIMULUS D STIM (1, 1) ;! CLOCK 1000 0.5 0 0
+   +0s 0
+   +500us 1
+   Repeat Forever
+      +500us 0
+      +500us 1
+   EndRepeat
.STIMULUS CLOCK STIM (1, 1) ;! CLOCK 5436 0.5 0 0
+   +0s 0
+   +91.97939661516us 1
+   Repeat Forever
+      +91.97939661516us 0
+      +91.97939661516us 1
+   EndRepeat

**** 11/13/17 11:58:27 ******* PSpice Lite (March 2016) ******* ID# 10813 ****

 ** Profile: "T_FROM_JK_test-T_FROM_JK_Test"  [ c:\users\student\desktop\csci labs\lab05_billings\lab05_billings-PSpiceFiles\T_FROM_J


 ****     Digital Gate MODEL PARAMETERS


******************************************************************************




               D0_GATE         D_107_4         D_107_3         
      TPLHMN    0               6.000000E-09    2.400000E-09 
      TPLHTY    0               6.000000E-09    6.000000E-09 
      TPLHMX    0               6.000000E-09    6.000000E-09 
      TPHLMN    0               0               2.400000E-09 
      TPHLTY    0               0               6.000000E-09 
      TPHLMX    0               0               6.000000E-09 


**** 11/13/17 11:58:27 ******* PSpice Lite (March 2016) ******* ID# 10813 ****

 ** Profile: "T_FROM_JK_test-T_FROM_JK_Test"  [ c:\users\student\desktop\csci labs\lab05_billings\lab05_billings-PSpiceFiles\T_FROM_J


 ****     Digital Edge Triggered FF MODEL PARAMETERS


******************************************************************************




               D_107_1         D_107_2         
  TPCLKQLHMN    4.000000E-09    4.000000E-09 
  TPCLKQLHTY   10.000000E-09   10.000000E-09 
  TPCLKQLHMX   16.000000E-09   19.000000E-09 
  TPCLKQHLMN    7.200000E-09    7.600000E-09 
  TPCLKQHLTY   18.000000E-09   19.000000E-09 
  TPCLKQHLMX   28.000000E-09   34.000000E-09 
   TPPCQLHMN    4.000000E-09    4.000000E-09 
   TPPCQLHTY   10.000000E-09   10.000000E-09 
   TPPCQLHMX   15.000000E-09   19.000000E-09 
   TPPCQHLMN    4.000000E-09    7.600000E-09 
   TPPCQHLTY   10.000000E-09   19.000000E-09 
   TPPCQHLMX   15.000000E-09   34.000000E-09 
    TWCLKLMN    0               0            
    TWCLKLTY   20.000000E-09   20.000000E-09 
    TWCLKLMX   20.000000E-09   20.000000E-09 
    TWCLKHMN    0               0            
    TWCLKHTY   20.000000E-09   20.000000E-09 
    TWCLKHMX   20.000000E-09   20.000000E-09 
     TWPCLMN    0               0            
     TWPCLTY   20.000000E-09   20.000000E-09 
     TWPCLMX   20.000000E-09   20.000000E-09 
   TSUDCLKMN    0               0            
   TSUDCLKTY   20.000000E-09   20.000000E-09 
   TSUDCLKMX   10.000000E-09   10.000000E-09 
 TSUPCCLKHMN    0               0            
 TSUPCCLKHTY    0               0            
 TSUPCCLKHMX    0               0            
    THDCLKMN    0               0            
    THDCLKTY    6.000000E-09    6.000000E-09 
    THDCLKMX    6.000000E-09    6.000000E-09 
  TSUCECLKMN    0               0            
  TSUCECLKTY    0               0            
  TSUCECLKMX    0               0            
   THCECLKMN    0               0            
   THCECLKTY    0               0            
   THCECLKMX    0               0            


**** 11/13/17 11:58:27 ******* PSpice Lite (March 2016) ******* ID# 10813 ****

 ** Profile: "T_FROM_JK_test-T_FROM_JK_Test"  [ c:\users\student\desktop\csci labs\lab05_billings\lab05_billings-PSpiceFiles\T_FROM_J


 ****     Digital IO  MODEL PARAMETERS


******************************************************************************




               IO_STM          IO_STD          
        DRVL    0             104            
        DRVH    0              96.4          
       AtoD1                 AtoD_STD        
       AtoD2                 AtoD_STD_NX     
       AtoD3                 AtoD_STD        
       AtoD4                 AtoD_STD_NX     
       DtoA1 DtoA_STM        DtoA_STD        
       DtoA2 DtoA_STM        DtoA_STD        
       DtoA3 DtoA_STM        DtoA_STD        
       DtoA4 DtoA_STM        DtoA_STD        
      TSWHL1                    1.511000E-09 
      TSWHL2                    1.487000E-09 
      TSWHL3                    1.511000E-09 
      TSWHL4                    1.487000E-09 
      TSWLH1                    3.517000E-09 
      TSWLH2                    3.564000E-09 
      TSWLH3                    3.517000E-09 
      TSWLH4                    3.564000E-09 
       TPWRT  100.000000E+03  100.000000E+03 



          JOB CONCLUDED

**** 11/13/17 11:58:27 ******* PSpice Lite (March 2016) ******* ID# 10813 ****

 ** Profile: "T_FROM_JK_test-T_FROM_JK_Test"  [ c:\users\student\desktop\csci labs\lab05_billings\lab05_billings-PSpiceFiles\T_FROM_J


 ****     JOB STATISTICS SUMMARY


******************************************************************************



  Total job time                    =         .05
