
**** 10/11/17 12:03:23 ******* PSpice Lite (March 2016) ******* ID# 10813 ****

 ** Profile: "SCHEMATIC1-Lab03_Simulation"  [ C:\Users\student\Desktop\CSCI Labs\Lab03_Billings\Lab03_Billings-PSpiceFiles\SCHEMATIC1


 ****     CIRCUIT DESCRIPTION


******************************************************************************




** Creating circuit file "Lab03_Simulation.cir" 
** WARNING: THIS AUTOMATICALLY GENERATED FILE MAY BE OVERWRITTEN BY SUBSEQUENT SIMULATIONS

*Libraries: 
* Profile Libraries :
* Local Libraries :
* From [PSPICE NETLIST] section of C:\Users\student\AppData\Roaming\SPB_Data\cdssetup\OrCAD_PSpice\17.2.0\PSpice.ini file:
.lib "nomd.lib" 
.stmlib "C:\Users\student\Desktop\CSCI Labs\Lab03_Billings_old\wxyz_base_500hz_billings.stl" 

*Analysis directives: 
.TRAN  0 10ms 0 
.OPTIONS ADVCONV
.PROBE64 V(alias(*)) I(alias(*)) W(alias(*)) D(alias(*)) NOISE(alias(*)) 
.INC "..\SCHEMATIC1.net" 



**** INCLUDING SCHEMATIC1.net ****
* source LAB03_BILLINGS
.EXTERNAL OUTPUT PORTLEFT-L
U_z         STIM(1,0) $G_DPWR $G_DGND N09034 IO_STM STIMULUS=z
X_U5A         N09076 N09156 N09182 N09034 N17579 $G_DPWR $G_DGND 7420 PARAMS:
+ IO_LEVEL=0 MNTYMXDLY=0
X_U10A         N09076 N14485 N09182 N09356 N17593 $G_DPWR $G_DGND 7420 PARAMS:
+ IO_LEVEL=0 MNTYMXDLY=0
U_y         STIM(1,0) $G_DPWR $G_DGND N14287 IO_STM STIMULUS=y
U_w         STIM(1,0) $G_DPWR $G_DGND N08960 IO_STM STIMULUS=w
X_U3D         N08960 N08960 N09076 $G_DPWR $G_DGND 7400 PARAMS:
+ IO_LEVEL=0 MNTYMXDLY=0
U_x         STIM(1,0) $G_DPWR $G_DGND N14485 IO_STM STIMULUS=x
X_U8A         N09076 N09156 N14287 N09356 N17586 $G_DPWR $G_DGND 7420 PARAMS:
+ IO_LEVEL=0 MNTYMXDLY=0
X_U24A         N08960 N09156 N09182 N09356 N17600 $G_DPWR $G_DGND 7420 PARAMS:
+ IO_LEVEL=0 MNTYMXDLY=0
X_U24B         N09034 N14287 N14485 N09076 N17607 $G_DPWR $G_DGND 7420 PARAMS:
+ IO_LEVEL=0 MNTYMXDLY=0
X_U25D         N14485 N14485 N09156 $G_DPWR $G_DGND 7400 PARAMS:
+ IO_LEVEL=0 MNTYMXDLY=0
X_U26D         N14287 N14287 N09182 $G_DPWR $G_DGND 7400 PARAMS:
+ IO_LEVEL=0 MNTYMXDLY=0
X_U27D         N09034 N09034 N09356 $G_DPWR $G_DGND 7400 PARAMS:
+ IO_LEVEL=0 MNTYMXDLY=0
X_U28B         N09034 N14287 N09156 N08960 N17614 $G_DPWR $G_DGND 7420 PARAMS:
+ IO_LEVEL=0 MNTYMXDLY=0
X_U29B         N09034 N09182 N14485 N08960 N17621 $G_DPWR $G_DGND 7420 PARAMS:
+ IO_LEVEL=0 MNTYMXDLY=0
X_U30B         N09356 N14287 N14485 N08960 N17633 $G_DPWR $G_DGND 7420 PARAMS:
+ IO_LEVEL=0 MNTYMXDLY=0
X_U31A         N17579 N17586 N17593 N17600 N17923 $G_DPWR $G_DGND 7420 PARAMS:
+ IO_LEVEL=0 MNTYMXDLY=0
X_U31B         N17607 N17614 N17621 N17633 N17937 $G_DPWR $G_DGND 7420 PARAMS:
+ IO_LEVEL=0 MNTYMXDLY=0
X_U32D         N17923 N17923 N18004 $G_DPWR $G_DGND 7400 PARAMS:
+ IO_LEVEL=0 MNTYMXDLY=0
X_U33D         N17937 N17937 N18009 $G_DPWR $G_DGND 7400 PARAMS:
+ IO_LEVEL=0 MNTYMXDLY=0
X_U34D         N18009 N18004 PORTLEFT-L $G_DPWR $G_DGND 7400 PARAMS:
+ IO_LEVEL=0 MNTYMXDLY=0

**** RESUMING Lab03_Simulation.cir ****
.END

* C:\Users\student\Desktop\CSCI Labs\Lab03_Billings_old\wxyz_base_500hz_billings.stl written on Wed Oct 11 11:19:12 2017
* by Stimulus Editor -- Lite Version 17.2.0
;!Stimulus Get
;! w Digital x Digital y Digital z Digital
;!Ok
;!Plot Axis_Settings
;!Xrange 0s 8ms
;!AutoUniverse
;!XminRes 1ns
;!YminRes 1n
;!Ok
.STIMULUS z STIM (1, 1) ;! CLOCK 4000 0.5 0 0
+   +0s 0
+   +125us 1
+   Repeat Forever
+      +125us 0
+      +125us 1
+   EndRepeat
.STIMULUS y STIM (1, 1) ;! CLOCK 2000 0.5 0 0
+   +0s 0
+   +250us 1
+   Repeat Forever
+      +250us 0
+      +250us 1
+   EndRepeat
.STIMULUS x STIM (1, 1) ;! CLOCK 1000 0.5 0 0
+   +0s 0
+   +500us 1
+   Repeat Forever
+      +500us 0
+      +500us 1
+   EndRepeat
.STIMULUS w STIM (1, 1) ;! CLOCK 500 0.5 0 0
+   +0s 0
+   +1ms 1
+   Repeat Forever
+      +1ms 0
+      +1ms 1
+   EndRepeat

**** 10/11/17 12:03:23 ******* PSpice Lite (March 2016) ******* ID# 10813 ****

 ** Profile: "SCHEMATIC1-Lab03_Simulation"  [ C:\Users\student\Desktop\CSCI Labs\Lab03_Billings\Lab03_Billings-PSpiceFiles\SCHEMATIC1


 ****     Digital Gate MODEL PARAMETERS


******************************************************************************




               D_20            D_00            
      TPLHMN    4.800000E-09    4.400000E-09 
      TPLHTY   12.000000E-09   11.000000E-09 
      TPLHMX   22.000000E-09   22.000000E-09 
      TPHLMN    3.200000E-09    2.800000E-09 
      TPHLTY    8.000000E-09    7.000000E-09 
      TPHLMX   15.000000E-09   15.000000E-09 


**** 10/11/17 12:03:23 ******* PSpice Lite (March 2016) ******* ID# 10813 ****

 ** Profile: "SCHEMATIC1-Lab03_Simulation"  [ C:\Users\student\Desktop\CSCI Labs\Lab03_Billings\Lab03_Billings-PSpiceFiles\SCHEMATIC1


 ****     Digital IO  MODEL PARAMETERS


******************************************************************************




               IO_STM          IO_STD          
        DRVL    0             104            
        DRVH    0              96.4          
       AtoD1                 AtoD_STD        
       AtoD2                 AtoD_STD_NX     
       AtoD3                 AtoD_STD        
       AtoD4                 AtoD_STD_NX     
       DtoA1 DtoA_STM        DtoA_STD        
       DtoA2 DtoA_STM        DtoA_STD        
       DtoA3 DtoA_STM        DtoA_STD        
       DtoA4 DtoA_STM        DtoA_STD        
      TSWHL1                    1.511000E-09 
      TSWHL2                    1.487000E-09 
      TSWHL3                    1.511000E-09 
      TSWHL4                    1.487000E-09 
      TSWLH1                    3.517000E-09 
      TSWLH2                    3.564000E-09 
      TSWLH3                    3.517000E-09 
      TSWLH4                    3.564000E-09 
       TPWRT  100.000000E+03  100.000000E+03 



          JOB CONCLUDED

**** 10/11/17 12:03:23 ******* PSpice Lite (March 2016) ******* ID# 10813 ****

 ** Profile: "SCHEMATIC1-Lab03_Simulation"  [ C:\Users\student\Desktop\CSCI Labs\Lab03_Billings\Lab03_Billings-PSpiceFiles\SCHEMATIC1


 ****     JOB STATISTICS SUMMARY


******************************************************************************



  Total job time                    =         .03
