
**** 09/08/17 11:18:06 ******* PSpice Lite (March 2016) ******* ID# 10813 ****

 ** Profile: "GATES_Billings-7400"  [ c:\users\student\desktop\csci labs\lab1_billings\lab1_billings-PSpiceFiles\GATES_Billings\7400.


 ****     CIRCUIT DESCRIPTION


******************************************************************************




** Creating circuit file "7400.cir" 
** WARNING: THIS AUTOMATICALLY GENERATED FILE MAY BE OVERWRITTEN BY SUBSEQUENT SIMULATIONS

*Libraries: 
* Profile Libraries :
* Local Libraries :
.STMLIB "../../../input.stl" 
* From [PSPICE NETLIST] section of C:\Users\student\AppData\Roaming\SPB_Data\cdssetup\OrCAD_PSpice\17.2.0\PSpice.ini file:
.lib "nomd.lib" 

*Analysis directives: 
.TRAN  0 10ms 0 
.OPTIONS ADVCONV
.PROBE64 V(alias(*)) I(alias(*)) W(alias(*)) D(alias(*)) NOISE(alias(*)) 
.INC "..\GATES_Billings.net" 



**** INCLUDING GATES_Billings.net ****
* source LAB1_BILLINGS
.EXTERNAL OUTPUT ANDoutput
.EXTERNAL OUTPUT ORoutput
.EXTERNAL OUTPUT NORoutput
.EXTERNAL OUTPUT NANDoutput
.EXTERNAL OUTPUT InvertedAndOutput
.EXTERNAL OUTPUT Nand Output
X_U1A         M_UN0001 M_UN0002 ANDOUTPUT $G_DPWR $G_DGND 7408 PARAMS:
+ IO_LEVEL=0 MNTYMXDLY=0
X_U2A         M_UN0003 M_UN0004 OROUTPUT $G_DPWR $G_DGND 7432 PARAMS:
+ IO_LEVEL=0 MNTYMXDLY=0
X_U3A         M_UN0005 M_UN0006 NOROUTPUT $G_DPWR $G_DGND 7402 PARAMS:
+ IO_LEVEL=0 MNTYMXDLY=0
X_U4A         N01515 M_UN0007 NANDOUTPUT $G_DPWR $G_DGND 7400 PARAMS:
+ IO_LEVEL=0 MNTYMXDLY=0
X_U5A         N02054 INVERTEDANDOUTPUT $G_DPWR $G_DGND 7404 PARAMS:
+ IO_LEVEL=0 MNTYMXDLY=0
X_U6A         N01964 N01976 N02054 $G_DPWR $G_DGND 7432 PARAMS:
+ IO_LEVEL=0 MNTYMXDLY=0
U_x1         STIM(1,0) $G_DPWR $G_DGND N02702 IO_STM STIMULUS=x
U_y1         STIM(1,0) $G_DPWR $G_DGND N02706 IO_STM STIMULUS=y
X_U9A         N02702 N02706 NAND OUTPUT $G_DPWR $G_DGND 7400 PARAMS:
+ IO_LEVEL=0 MNTYMXDLY=0

**** RESUMING 7400.cir ****
.END

WARNING(ORPSIM-15220): Error in opening Alias File : c:\users\student\desktop\csci labs\lab1_billings\lab1_billings-PSpiceFiles\GATES_Billings\GATES_Billings.als
